Version 4
SHEET 1 880 952
SYMBOL PowerProducts\\LTC4020 208 208 R0
SYMATTR InstName U1
